powerfulcases/cases/matpower/case141/case141.raw
0, 10, 33, 0, 0, 60  / 28-Jan-2026 21:50:39 - MATPOWER 8.1


     1, 'BUS 1       ',     12.47, 3,    1,    1, 1,           1,           0,    1,    1,    1,    1
     2, 'BUS 2       ',     12.47, 1,    1,    1, 1,           1,           0,  1.1,  0.9,  1.1,  0.9
     3, 'BUS 3       ',     12.47, 1,    1,    1, 1,           1,           0,  1.1,  0.9,  1.1,  0.9
     4, 'BUS 4       ',     12.47, 1,    1,    1, 1,           1,           0,  1.1,  0.9,  1.1,  0.9
     5, 'BUS 5       ',     12.47, 1,    1,    1, 1,           1,           0,  1.1,  0.9,  1.1,  0.9
     6, 'BUS 6       ',     12.47, 1,    1,    1, 1,           1,           0,  1.1,  0.9,  1.1,  0.9
     7, 'BUS 7       ',     12.47, 1,    1,    1, 1,           1,           0,  1.1,  0.9,  1.1,  0.9
     8, 'BUS 8       ',     12.47, 1,    1,    1, 1,           1,           0,  1.1,  0.9,  1.1,  0.9
     9, 'BUS 9       ',     12.47, 1,    1,    1, 1,           1,           0,  1.1,  0.9,  1.1,  0.9
    10, 'BUS 10      ',     12.47, 1,    1,    1, 1,           1,           0,  1.1,  0.9,  1.1,  0.9
    11, 'BUS 11      ',     12.47, 1,    1,    1, 1,           1,           0,  1.1,  0.9,  1.1,  0.9
    12, 'BUS 12      ',     12.47, 1,    1,    1, 1,           1,           0,  1.1,  0.9,  1.1,  0.9
    13, 'BUS 13      ',     12.47, 1,    1,    1, 1,           1,           0,  1.1,  0.9,  1.1,  0.9
    14, 'BUS 14      ',     12.47, 1,    1,    1, 1,           1,           0,  1.1,  0.9,  1.1,  0.9
    15, 'BUS 15      ',     12.47, 1,    1,    1, 1,           1,           0,  1.1,  0.9,  1.1,  0.9
    16, 'BUS 16      ',     12.47, 1,    1,    1, 1,           1,           0,  1.1,  0.9,  1.1,  0.9
    17, 'BUS 17      ',     12.47, 1,    1,    1, 1,           1,           0,  1.1,  0.9,  1.1,  0.9
    18, 'BUS 18      ',     12.47, 1,    1,    1, 1,           1,           0,  1.1,  0.9,  1.1,  0.9
    19, 'BUS 19      ',     12.47, 1,    1,    1, 1,           1,           0,  1.1,  0.9,  1.1,  0.9
    20, 'BUS 20      ',     12.47, 1,    1,    1, 1,           1,           0,  1.1,  0.9,  1.1,  0.9
    21, 'BUS 21      ',     12.47, 1,    1,    1, 1,           1,           0,  1.1,  0.9,  1.1,  0.9
    22, 'BUS 22      ',     12.47, 1,    1,    1, 1,           1,           0,  1.1,  0.9,  1.1,  0.9
    23, 'BUS 23      ',     12.47, 1,    1,    1, 1,           1,           0,  1.1,  0.9,  1.1,  0.9
    24, 'BUS 24      ',     12.47, 1,    1,    1, 1,           1,           0,  1.1,  0.9,  1.1,  0.9
    25, 'BUS 25      ',     12.47, 1,    1,    1, 1,           1,           0,  1.1,  0.9,  1.1,  0.9
    26, 'BUS 26      ',     12.47, 1,    1,    1, 1,           1,           0,  1.1,  0.9,  1.1,  0.9
    27, 'BUS 27      ',     12.47, 1,    1,    1, 1,           1,           0,  1.1,  0.9,  1.1,  0.9
    28, 'BUS 28      ',     12.47, 1,    1,    1, 1,           1,           0,  1.1,  0.9,  1.1,  0.9
    29, 'BUS 29      ',     12.47, 1,    1,    1, 1,           1,           0,  1.1,  0.9,  1.1,  0.9
    30, 'BUS 30      ',     12.47, 1,    1,    1, 1,           1,           0,  1.1,  0.9,  1.1,  0.9
    31, 'BUS 31      ',     12.47, 1,    1,    1, 1,           1,           0,  1.1,  0.9,  1.1,  0.9
    32, 'BUS 32      ',     12.47, 1,    1,    1, 1,           1,           0,  1.1,  0.9,  1.1,  0.9
    33, 'BUS 33      ',     12.47, 1,    1,    1, 1,           1,           0,  1.1,  0.9,  1.1,  0.9
    34, 'BUS 34      ',     12.47, 1,    1,    1, 1,           1,           0,  1.1,  0.9,  1.1,  0.9
    35, 'BUS 35      ',     12.47, 1,    1,    1, 1,           1,           0,  1.1,  0.9,  1.1,  0.9
    36, 'BUS 36      ',     12.47, 1,    1,    1, 1,           1,           0,  1.1,  0.9,  1.1,  0.9
    37, 'BUS 37      ',     12.47, 1,    1,    1, 1,           1,           0,  1.1,  0.9,  1.1,  0.9
    38, 'BUS 38      ',     12.47, 1,    1,    1, 1,           1,           0,  1.1,  0.9,  1.1,  0.9
    39, 'BUS 39      ',     12.47, 1,    1,    1, 1,           1,           0,  1.1,  0.9,  1.1,  0.9
    40, 'BUS 40      ',     12.47, 1,    1,    1, 1,           1,           0,  1.1,  0.9,  1.1,  0.9
    41, 'BUS 41      ',     12.47, 1,    1,    1, 1,           1,           0,  1.1,  0.9,  1.1,  0.9
    42, 'BUS 42      ',     12.47, 1,    1,    1, 1,           1,           0,  1.1,  0.9,  1.1,  0.9
    43, 'BUS 43      ',     12.47, 1,    1,    1, 1,           1,           0,  1.1,  0.9,  1.1,  0.9
    44, 'BUS 44      ',     12.47, 1,    1,    1, 1,           1,           0,  1.1,  0.9,  1.1,  0.9
    45, 'BUS 45      ',     12.47, 1,    1,    1, 1,           1,           0,  1.1,  0.9,  1.1,  0.9
    46, 'BUS 46      ',     12.47, 1,    1,    1, 1,           1,           0,  1.1,  0.9,  1.1,  0.9
    47, 'BUS 47      ',     12.47, 1,    1,    1, 1,           1,           0,  1.1,  0.9,  1.1,  0.9
    48, 'BUS 48      ',     12.47, 1,    1,    1, 1,           1,           0,  1.1,  0.9,  1.1,  0.9
    49, 'BUS 49      ',     12.47, 1,    1,    1, 1,           1,           0,  1.1,  0.9,  1.1,  0.9
    50, 'BUS 50      ',     12.47, 1,    1,    1, 1,           1,           0,  1.1,  0.9,  1.1,  0.9
    51, 'BUS 51      ',     12.47, 1,    1,    1, 1,           1,           0,  1.1,  0.9,  1.1,  0.9
    52, 'BUS 52      ',     12.47, 1,    1,    1, 1,           1,           0,  1.1,  0.9,  1.1,  0.9
    53, 'BUS 53      ',     12.47, 1,    1,    1, 1,           1,           0,  1.1,  0.9,  1.1,  0.9
    54, 'BUS 54      ',     12.47, 1,    1,    1, 1,           1,           0,  1.1,  0.9,  1.1,  0.9
    55, 'BUS 55      ',     12.47, 1,    1,    1, 1,           1,           0,  1.1,  0.9,  1.1,  0.9
    56, 'BUS 56      ',     12.47, 1,    1,    1, 1,           1,           0,  1.1,  0.9,  1.1,  0.9
    57, 'BUS 57      ',     12.47, 1,    1,    1, 1,           1,           0,  1.1,  0.9,  1.1,  0.9
    58, 'BUS 58      ',     12.47, 1,    1,    1, 1,           1,           0,  1.1,  0.9,  1.1,  0.9
    59, 'BUS 59      ',     12.47, 1,    1,    1, 1,           1,           0,  1.1,  0.9,  1.1,  0.9
    60, 'BUS 60      ',     12.47, 1,    1,    1, 1,           1,           0,  1.1,  0.9,  1.1,  0.9
    61, 'BUS 61      ',     12.47, 1,    1,    1, 1,           1,           0,  1.1,  0.9,  1.1,  0.9
    62, 'BUS 62      ',     12.47, 1,    1,    1, 1,           1,           0,  1.1,  0.9,  1.1,  0.9
    63, 'BUS 63      ',     12.47, 1,    1,    1, 1,           1,           0,  1.1,  0.9,  1.1,  0.9
    64, 'BUS 64      ',     12.47, 1,    1,    1, 1,           1,           0,  1.1,  0.9,  1.1,  0.9
    65, 'BUS 65      ',     12.47, 1,    1,    1, 1,           1,           0,  1.1,  0.9,  1.1,  0.9
    66, 'BUS 66      ',     12.47, 1,    1,    1, 1,           1,           0,  1.1,  0.9,  1.1,  0.9
    67, 'BUS 67      ',     12.47, 1,    1,    1, 1,           1,           0,  1.1,  0.9,  1.1,  0.9
    68, 'BUS 68      ',     12.47, 1,    1,    1, 1,           1,           0,  1.1,  0.9,  1.1,  0.9
    69, 'BUS 69      ',     12.47, 1,    1,    1, 1,           1,           0,  1.1,  0.9,  1.1,  0.9
    70, 'BUS 70      ',     12.47, 1,    1,    1, 1,           1,           0,  1.1,  0.9,  1.1,  0.9
    71, 'BUS 71      ',     12.47, 1,    1,    1, 1,           1,           0,  1.1,  0.9,  1.1,  0.9
    72, 'BUS 72      ',     12.47, 1,    1,    1, 1,           1,           0,  1.1,  0.9,  1.1,  0.9
    73, 'BUS 73      ',     12.47, 1,    1,    1, 1,           1,           0,  1.1,  0.9,  1.1,  0.9
    74, 'BUS 74      ',     12.47, 1,    1,    1, 1,           1,           0,  1.1,  0.9,  1.1,  0.9
    75, 'BUS 75      ',     12.47, 1,    1,    1, 1,           1,           0,  1.1,  0.9,  1.1,  0.9
    76, 'BUS 76      ',     12.47, 1,    1,    1, 1,           1,           0,  1.1,  0.9,  1.1,  0.9
    77, 'BUS 77      ',     12.47, 1,    1,    1, 1,           1,           0,  1.1,  0.9,  1.1,  0.9
    78, 'BUS 78      ',     12.47, 1,    1,    1, 1,           1,           0,  1.1,  0.9,  1.1,  0.9
    79, 'BUS 79      ',     12.47, 1,    1,    1, 1,           1,           0,  1.1,  0.9,  1.1,  0.9
    80, 'BUS 80      ',     12.47, 1,    1,    1, 1,           1,           0,  1.1,  0.9,  1.1,  0.9
    81, 'BUS 81      ',     12.47, 1,    1,    1, 1,           1,           0,  1.1,  0.9,  1.1,  0.9
    82, 'BUS 82      ',     12.47, 1,    1,    1, 1,           1,           0,  1.1,  0.9,  1.1,  0.9
    83, 'BUS 83      ',     12.47, 1,    1,    1, 1,           1,           0,  1.1,  0.9,  1.1,  0.9
    84, 'BUS 84      ',     12.47, 1,    1,    1, 1,           1,           0,  1.1,  0.9,  1.1,  0.9
    85, 'BUS 85      ',     12.47, 1,    1,    1, 1,           1,           0,  1.1,  0.9,  1.1,  0.9
    86, 'BUS 86      ',     12.47, 1,    1,    1, 1,           1,           0,  1.1,  0.9,  1.1,  0.9
    87, 'BUS 87      ',     12.47, 1,    1,    1, 1,           1,           0,  1.1,  0.9,  1.1,  0.9
    88, 'BUS 88      ',     12.47, 1,    1,    1, 1,           1,           0,  1.1,  0.9,  1.1,  0.9
    89, 'BUS 89      ',     12.47, 1,    1,    1, 1,           1,           0,  1.1,  0.9,  1.1,  0.9
    90, 'BUS 90      ',     12.47, 1,    1,    1, 1,           1,           0,  1.1,  0.9,  1.1,  0.9
    91, 'BUS 91      ',     12.47, 1,    1,    1, 1,           1,           0,  1.1,  0.9,  1.1,  0.9
    92, 'BUS 92      ',     12.47, 1,    1,    1, 1,           1,           0,  1.1,  0.9,  1.1,  0.9
    93, 'BUS 93      ',     12.47, 1,    1,    1, 1,           1,           0,  1.1,  0.9,  1.1,  0.9
    94, 'BUS 94      ',     12.47, 1,    1,    1, 1,           1,           0,  1.1,  0.9,  1.1,  0.9
    95, 'BUS 95      ',     12.47, 1,    1,    1, 1,           1,           0,  1.1,  0.9,  1.1,  0.9
    96, 'BUS 96      ',     12.47, 1,    1,    1, 1,           1,           0,  1.1,  0.9,  1.1,  0.9
    97, 'BUS 97      ',     12.47, 1,    1,    1, 1,           1,           0,  1.1,  0.9,  1.1,  0.9
    98, 'BUS 98      ',     12.47, 1,    1,    1, 1,           1,           0,  1.1,  0.9,  1.1,  0.9
    99, 'BUS 99      ',     12.47, 1,    1,    1, 1,           1,           0,  1.1,  0.9,  1.1,  0.9
   100, 'BUS 100     ',     12.47, 1,    1,    1, 1,           1,           0,  1.1,  0.9,  1.1,  0.9
   101, 'BUS 101     ',     12.47, 1,    1,    1, 1,           1,           0,  1.1,  0.9,  1.1,  0.9
   102, 'BUS 102     ',     12.47, 1,    1,    1, 1,           1,           0,  1.1,  0.9,  1.1,  0.9
   103, 'BUS 103     ',     12.47, 1,    1,    1, 1,           1,           0,  1.1,  0.9,  1.1,  0.9
   104, 'BUS 104     ',     12.47, 1,    1,    1, 1,           1,           0,  1.1,  0.9,  1.1,  0.9
   105, 'BUS 105     ',     12.47, 1,    1,    1, 1,           1,           0,  1.1,  0.9,  1.1,  0.9
   106, 'BUS 106     ',     12.47, 1,    1,    1, 1,           1,           0,  1.1,  0.9,  1.1,  0.9
   107, 'BUS 107     ',     12.47, 1,    1,    1, 1,           1,           0,  1.1,  0.9,  1.1,  0.9
   108, 'BUS 108     ',     12.47, 1,    1,    1, 1,           1,           0,  1.1,  0.9,  1.1,  0.9
   109, 'BUS 109     ',     12.47, 1,    1,    1, 1,           1,           0,  1.1,  0.9,  1.1,  0.9
   110, 'BUS 110     ',     12.47, 1,    1,    1, 1,           1,           0,  1.1,  0.9,  1.1,  0.9
   111, 'BUS 111     ',     12.47, 1,    1,    1, 1,           1,           0,  1.1,  0.9,  1.1,  0.9
   112, 'BUS 112     ',     12.47, 1,    1,    1, 1,           1,           0,  1.1,  0.9,  1.1,  0.9
   113, 'BUS 113     ',     12.47, 1,    1,    1, 1,           1,           0,  1.1,  0.9,  1.1,  0.9
   114, 'BUS 114     ',     12.47, 1,    1,    1, 1,           1,           0,  1.1,  0.9,  1.1,  0.9
   115, 'BUS 115     ',     12.47, 1,    1,    1, 1,           1,           0,  1.1,  0.9,  1.1,  0.9
   116, 'BUS 116     ',     12.47, 1,    1,    1, 1,           1,           0,  1.1,  0.9,  1.1,  0.9
   117, 'BUS 117     ',     12.47, 1,    1,    1, 1,           1,           0,  1.1,  0.9,  1.1,  0.9
   118, 'BUS 118     ',     12.47, 1,    1,    1, 1,           1,           0,  1.1,  0.9,  1.1,  0.9
   119, 'BUS 119     ',     12.47, 1,    1,    1, 1,           1,           0,  1.1,  0.9,  1.1,  0.9
   120, 'BUS 120     ',     12.47, 1,    1,    1, 1,           1,           0,  1.1,  0.9,  1.1,  0.9
   121, 'BUS 121     ',     12.47, 1,    1,    1, 1,           1,           0,  1.1,  0.9,  1.1,  0.9
   122, 'BUS 122     ',     12.47, 1,    1,    1, 1,           1,           0,  1.1,  0.9,  1.1,  0.9
   123, 'BUS 123     ',     12.47, 1,    1,    1, 1,           1,           0,  1.1,  0.9,  1.1,  0.9
   124, 'BUS 124     ',     12.47, 1,    1,    1, 1,           1,           0,  1.1,  0.9,  1.1,  0.9
   125, 'BUS 125     ',     12.47, 1,    1,    1, 1,           1,           0,  1.1,  0.9,  1.1,  0.9
   126, 'BUS 126     ',     12.47, 1,    1,    1, 1,           1,           0,  1.1,  0.9,  1.1,  0.9
   127, 'BUS 127     ',     12.47, 1,    1,    1, 1,           1,           0,  1.1,  0.9,  1.1,  0.9
   128, 'BUS 128     ',     12.47, 1,    1,    1, 1,           1,           0,  1.1,  0.9,  1.1,  0.9
   129, 'BUS 129     ',     12.47, 1,    1,    1, 1,           1,           0,  1.1,  0.9,  1.1,  0.9
   130, 'BUS 130     ',     12.47, 1,    1,    1, 1,           1,           0,  1.1,  0.9,  1.1,  0.9
   131, 'BUS 131     ',     12.47, 1,    1,    1, 1,           1,           0,  1.1,  0.9,  1.1,  0.9
   132, 'BUS 132     ',     12.47, 1,    1,    1, 1,           1,           0,  1.1,  0.9,  1.1,  0.9
   133, 'BUS 133     ',     12.47, 1,    1,    1, 1,           1,           0,  1.1,  0.9,  1.1,  0.9
   134, 'BUS 134     ',     12.47, 1,    1,    1, 1,           1,           0,  1.1,  0.9,  1.1,  0.9
   135, 'BUS 135     ',     12.47, 1,    1,    1, 1,           1,           0,  1.1,  0.9,  1.1,  0.9
   136, 'BUS 136     ',     12.47, 1,    1,    1, 1,           1,           0,  1.1,  0.9,  1.1,  0.9
   137, 'BUS 137     ',     12.47, 1,    1,    1, 1,           1,           0,  1.1,  0.9,  1.1,  0.9
   138, 'BUS 138     ',     12.47, 1,    1,    1, 1,           1,           0,  1.1,  0.9,  1.1,  0.9
   139, 'BUS 139     ',     12.47, 1,    1,    1, 1,           1,           0,  1.1,  0.9,  1.1,  0.9
   140, 'BUS 140     ',     12.47, 1,    1,    1, 1,           1,           0,  1.1,  0.9,  1.1,  0.9
   141, 'BUS 141     ',     12.47, 1,    1,    1, 1,           1,           0,  1.1,  0.9,  1.1,  0.9
0 / END OF BUS DATA, BEGIN LOAD DATA
     8,  1, 1,    1,    1,   0.06375, 0.0395087, 0, 0, 0, 0, 1, 1, 0
     9,  1, 1,    1,    1,    0.0085, 0.005267827, 0, 0, 0, 0, 1, 1, 0
    12,  1, 1,    1,    1,   0.02125, 0.01316957, 0, 0, 0, 0, 1, 1, 0
    13,  1, 1,    1,    1,   0.06375, 0.0395087, 0, 0, 0, 0, 1, 1, 0
    17,  1, 1,    1,    1,    0.1275, 0.0790174, 0, 0, 0, 0, 1, 1, 0
    20,  1, 1,    1,    1,   0.06375, 0.0395087, 0, 0, 0, 0, 1, 1, 0
    21,  1, 1,    1,    1,   0.06375, 0.0395087, 0, 0, 0, 0, 1, 1, 0
    23,  1, 1,    1,    1,   0.06375, 0.0395087, 0, 0, 0, 0, 1, 1, 0
    26,  1, 1,    1,    1,    0.1275, 0.0790174, 0, 0, 0, 0, 1, 1, 0
    27,  1, 1,    1,    1,   0.06375, 0.0395087, 0, 0, 0, 0, 1, 1, 0
    29,  1, 1,    1,    1,   0.06375, 0.0395087, 0, 0, 0, 0, 1, 1, 0
    32,  1, 1,    1,    1,    0.1275, 0.0790174, 0, 0, 0, 0, 1, 1, 0
    34,  1, 1,    1,    1,    0.1275, 0.0790174, 0, 0, 0, 0, 1, 1, 0
    35,  1, 1,    1,    1,     0.255, 0.1580348, 0, 0, 0, 0, 1, 1, 0
    36,  1, 1,    1,    1,    0.1275, 0.0790174, 0, 0, 0, 0, 1, 1, 0
    37,  1, 1,    1,    1,    0.0425, 0.02633913, 0, 0, 0, 0, 1, 1, 0
    39,  1, 1,    1,    1,     0.017, 0.01053565, 0, 0, 0, 0, 1, 1, 0
    41,  1, 1,    1,    1,   0.06375, 0.0395087, 0, 0, 0, 0, 1, 1, 0
    44,  1, 1,    1,    1,    0.0425, 0.02633913, 0, 0, 0, 0, 1, 1, 0
    48,  1, 1,    1,    1,   0.10625, 0.06584784, 0, 0, 0, 0, 1, 1, 0
    49,  1, 1,    1,    1,    0.1275, 0.0790174, 0, 0, 0, 0, 1, 1, 0
    51,  1, 1,    1,    1,   0.10625, 0.06584784, 0, 0, 0, 0, 1, 1, 0
    52,  1, 1,    1,    1,   0.06375, 0.0395087, 0, 0, 0, 0, 1, 1, 0
    53,  1, 1,    1,    1,     0.085, 0.05267827, 0, 0, 0, 0, 1, 1, 0
    56,  1, 1,    1,    1,   0.02125, 0.01316957, 0, 0, 0, 0, 1, 1, 0
    58,  1, 1,    1,    1,     0.255, 0.1580348, 0, 0, 0, 0, 1, 1, 0
    59,  1, 1,    1,    1,    0.1275, 0.0790174, 0, 0, 0, 0, 1, 1, 0
    61,  1, 1,    1,    1,     0.255, 0.1580348, 0, 0, 0, 0, 1, 1, 0
    62,  1, 1,    1,    1,      0.17, 0.1053565, 0, 0, 0, 0, 1, 1, 0
    64,  1, 1,    1,    1,     0.255, 0.1580348, 0, 0, 0, 0, 1, 1, 0
    65,  1, 1,    1,    1,    0.1275, 0.0790174, 0, 0, 0, 0, 1, 1, 0
    66,  1, 1,    1,    1,   0.19125, 0.1185261, 0, 0, 0, 0, 1, 1, 0
    67,  1, 1,    1,    1,    0.0425, 0.02633913, 0, 0, 0, 0, 1, 1, 0
    68,  1, 1,    1,    1,     0.085, 0.05267827, 0, 0, 0, 0, 1, 1, 0
    69,  1, 1,    1,    1,     0.255, 0.1580348, 0, 0, 0, 0, 1, 1, 0
    71,  1, 1,    1,    1,     0.255, 0.1580348, 0, 0, 0, 0, 1, 1, 0
    72,  1, 1,    1,    1,    0.1275, 0.0790174, 0, 0, 0, 0, 1, 1, 0
    73,  1, 1,    1,    1,     0.255, 0.1580348, 0, 0, 0, 0, 1, 1, 0
    74,  1, 1,    1,    1,     0.255, 0.1580348, 0, 0, 0, 0, 1, 1, 0
    75,  1, 1,    1,    1,   0.03825, 0.02370522, 0, 0, 0, 0, 1, 1, 0
    76,  1, 1,    1,    1,   0.06375, 0.0395087, 0, 0, 0, 0, 1, 1, 0
    77,  1, 1,    1,    1,    0.1275, 0.0790174, 0, 0, 0, 0, 1, 1, 0
    79,  1, 1,    1,    1,  0.427125, 0.2647083, 0, 0, 0, 0, 1, 1, 0
    80,  1, 1,    1,    1,    0.6375,  0.395087, 0, 0, 0, 0, 1, 1, 0
    82,  1, 1,    1,    1,    0.1275, 0.0790174, 0, 0, 0, 0, 1, 1, 0
    83,  1, 1,    1,    1,   0.06375, 0.0395087, 0, 0, 0, 0, 1, 1, 0
    84,  1, 1,    1,    1,   0.19125, 0.1185261, 0, 0, 0, 0, 1, 1, 0
    86,  1, 1,    1,    1,     0.425, 0.2633913, 0, 0, 0, 0, 1, 1, 0
    87,  1, 1,    1,    1,    0.1275, 0.0790174, 0, 0, 0, 0, 1, 1, 0
    88,  1, 1,    1,    1,   0.06375, 0.0395087, 0, 0, 0, 0, 1, 1, 0
    89,  1, 1,    1,    1,   0.05525, 0.03424087, 0, 0, 0, 0, 1, 1, 0
    94,  1, 1,    1,    1,    0.0935, 0.0579461, 0, 0, 0, 0, 1, 1, 0
    96,  1, 1,    1,    1,    0.1275, 0.0790174, 0, 0, 0, 0, 1, 1, 0
    98,  1, 1,    1,    1,     0.255, 0.1580348, 0, 0, 0, 0, 1, 1, 0
   100,  1, 1,    1,    1,     0.255, 0.1580348, 0, 0, 0, 0, 1, 1, 0
   101,  1, 1,    1,    1,   0.01275, 0.00790174, 0, 0, 0, 0, 1, 1, 0
   103,  1, 1,    1,    1,   0.10625, 0.06584784, 0, 0, 0, 0, 1, 1, 0
   105,  1, 1,    1,    1,     0.255, 0.1580348, 0, 0, 0, 0, 1, 1, 0
   106,  1, 1,    1,    1,    0.1275, 0.0790174, 0, 0, 0, 0, 1, 1, 0
   107,  1, 1,    1,    1,  0.427125, 0.2647083, 0, 0, 0, 0, 1, 1, 0
   109,  1, 1,    1,    1,    0.6375,  0.395087, 0, 0, 0, 0, 1, 1, 0
   110,  1, 1,    1,    1,    0.6375,  0.395087, 0, 0, 0, 0, 1, 1, 0
   111,  1, 1,    1,    1,   0.02125, 0.01316957, 0, 0, 0, 0, 1, 1, 0
   112,  1, 1,    1,    1,     0.425, 0.2633913, 0, 0, 0, 0, 1, 1, 0
   113,  1, 1,    1,    1,   0.06375, 0.0395087, 0, 0, 0, 0, 1, 1, 0
   116,  1, 1,    1,    1,     0.255, 0.1580348, 0, 0, 0, 0, 1, 1, 0
   117,  1, 1,    1,    1,   0.05525, 0.03424087, 0, 0, 0, 0, 1, 1, 0
   119,  1, 1,    1,    1,    0.0935, 0.0579461, 0, 0, 0, 0, 1, 1, 0
   123,  1, 1,    1,    1,     0.085, 0.05267827, 0, 0, 0, 0, 1, 1, 0
   124,  1, 1,    1,    1,   0.10625, 0.06584784, 0, 0, 0, 0, 1, 1, 0
   127,  1, 1,    1,    1,   0.06375, 0.0395087, 0, 0, 0, 0, 1, 1, 0
   128,  1, 1,    1,    1,   0.06375, 0.0395087, 0, 0, 0, 0, 1, 1, 0
   129,  1, 1,    1,    1,    0.0935, 0.0579461, 0, 0, 0, 0, 1, 1, 0
   130,  1, 1,    1,    1,  0.095625, 0.05926305, 0, 0, 0, 0, 1, 1, 0
   132,  1, 1,    1,    1,   0.06375, 0.0395087, 0, 0, 0, 0, 1, 1, 0
   133,  1, 1,    1,    1,   0.03825, 0.02370522, 0, 0, 0, 0, 1, 1, 0
   134,  1, 1,    1,    1,   0.02975, 0.01843739, 0, 0, 0, 0, 1, 1, 0
   135,  1, 1,    1,    1,   0.02125, 0.01316957, 0, 0, 0, 0, 1, 1, 0
   136,  1, 1,    1,    1,   0.06375, 0.0395087, 0, 0, 0, 0, 1, 1, 0
   137,  1, 1,    1,    1,   0.04675, 0.02897305, 0, 0, 0, 0, 1, 1, 0
   138,  1, 1,    1,    1,    0.0425, 0.02633913, 0, 0, 0, 0, 1, 1, 0
   139,  1, 1,    1,    1,    0.0425, 0.02633913, 0, 0, 0, 0, 1, 1, 0
   140,  1, 1,    1,    1,    0.1275, 0.0790174, 0, 0, 0, 0, 1, 1, 0
   141,  1, 1,    1,    1,   0.06375, 0.0395087, 0, 0, 0, 0, 1, 1, 0
0 / END OF LOAD DATA, BEGIN FIXED SHUNT DATA
0 / END OF FIXED SHUNT DATA, BEGIN GENERATOR DATA
     1,  1,         0,         0,       100,      -100,        1, 0,     100, 0, 1, 0, 0, 1, 1, 100,       100,         0, 1, 1, 0, 1, 0, 1, 0, 1, 0, 1
0 / END OF GENERATOR DATA, BEGIN BRANCH DATA
     1,      2, 1, 0.003710589, 0.00263021,        0,       0,       0,       0, 0, 0, 0, 0, 1, 1, 0, 1, 1, 0, 1, 0, 1, 0, 1
     2,      3, 1, 0.01109318, 0.007864906,        0,       0,       0,       0, 0, 0, 0, 0, 1, 1, 0, 1, 1, 0, 1, 0, 1, 0, 1
     3,      4, 1, 5.787748e-05, 3.858499e-05,        0,       0,       0,       0, 0, 0, 0, 0, 1, 1, 0, 1, 1, 0, 1, 0, 1, 0, 1
     4,      5, 1, 0.0005916364, 0.000418004,        0,       0,       0,       0, 0, 0, 0, 0, 1, 1, 0, 1, 1, 0, 1, 0, 1, 0, 1
     5,      6, 1, 0.0004372965, 0.0003151107,        0,       0,       0,       0, 0, 0, 0, 0, 1, 1, 0, 1, 1, 0, 1, 0, 1, 0, 1
     6,      7, 1, 0.00301606, 0.004019269,        0,       0,       0,       0, 0, 0, 0, 0, 1, 1, 0, 1, 1, 0, 1, 0, 1, 0, 1
     7,      8, 1, 0.004733092, 0.006308645,        0,       0,       0,       0, 0, 0, 0, 0, 1, 1, 0, 1, 1, 0, 1, 0, 1, 0, 1
     8,      9, 1, 0.004173609, 0.002951751,        0,       0,       0,       0, 0, 0, 0, 0, 1, 1, 0, 1, 1, 0, 1, 0, 1, 0, 1
     9,     10, 1, 0.003260431, 0.002308668,        0,       0,       0,       0, 0, 0, 0, 0, 1, 1, 0, 1, 1, 0, 1, 0, 1, 0, 1
    10,     11, 1, 0.0007459764, 0.0005273281,        0,       0,       0,       0, 0, 0, 0, 0, 1, 1, 0, 1, 1, 0, 1, 0, 1, 0, 1
    11,     12, 1, 0.008302203, 0.005871349,        0,       0,       0,       0, 0, 0, 0, 0, 1, 1, 0, 1, 1, 0, 1, 0, 1, 0, 1
    12,     13, 1, 0.00789063, 0.0055691,        0,       0,       0,       0, 0, 0, 0, 0, 1, 1, 0, 1, 1, 0, 1, 0, 1, 0, 1
    13,     14, 1, 0.003138246, 0.002218637,        0,       0,       0,       0, 0, 0, 0, 0, 1, 1, 0, 1, 1, 0, 1, 0, 1, 0, 1
    14,     15, 1, 0.006154305, 0.004353673,        0,       0,       0,       0, 0, 0, 0, 0, 1, 1, 0, 1, 1, 0, 1, 0, 1, 0, 1
    15,     16, 1, 0.005530515, 0.003916376,        0,       0,       0,       0, 0, 0, 0, 0, 1, 1, 0, 1, 1, 0, 1, 0, 1, 0, 1
    16,     17, 1, 0.002559471, 0.001813494,        0,       0,       0,       0, 0, 0, 0, 0, 1, 1, 0, 1, 1, 0, 1, 0, 1, 0, 1
    17,     18, 1, 0.005324728, 0.00363985,        0,       0,       0,       0, 0, 0, 0, 0, 1, 1, 0, 1, 1, 0, 1, 0, 1, 0, 1
    18,     19, 1, 0.001196135, 0.0008488697,        0,       0,       0,       0, 0, 0, 0, 0, 1, 1, 0, 1, 1, 0, 1, 0, 1, 0, 1
    19,     20, 1, 0.003594834, 0.002540178,        0,       0,       0,       0, 0, 0, 0, 0, 1, 1, 0, 1, 1, 0, 1, 0, 1, 0, 1
    20,     21, 1, 0.002347253, 0.001581984,        0,       0,       0,       0, 0, 0, 0, 0, 1, 1, 0, 1, 1, 0, 1, 0, 1, 0, 1
    21,     22, 1, 0.003684866, 0.001974265,        0,       0,       0,       0, 0, 0, 0, 0, 1, 1, 0, 1, 1, 0, 1, 0, 1, 0, 1
    22,     23, 1, 0.001691309, 0.001228289,        0,       0,       0,       0, 0, 0, 0, 0, 1, 1, 0, 1, 1, 0, 1, 0, 1, 0, 1
    23,     24, 1, 0.004392258, 0.003196123,        0,       0,       0,       0, 0, 0, 0, 0, 1, 1, 0, 1, 1, 0, 1, 0, 1, 0, 1
    24,     25, 1, 0.002559471, 0.001813494,        0,       0,       0,       0, 0, 0, 0, 0, 1, 1, 0, 1, 1, 0, 1, 0, 1, 0, 1
    25,     26, 1, 0.004688076, 0.00340834,        0,       0,       0,       0, 0, 0, 0, 0, 1, 1, 0, 1, 1, 0, 1, 0, 1, 0, 1
    26,     27, 1, 0.002154328, 0.001569123,        0,       0,       0,       0, 0, 0, 0, 0, 1, 1, 0, 1, 1, 0, 1, 0, 1, 0, 1
    27,     28, 1, 0.003755605, 0.002662364,        0,       0,       0,       0, 0, 0, 0, 0, 1, 1, 0, 1, 1, 0, 1, 0, 1, 0, 1
    28,     29, 1, 0.004212194, 0.002977475,        0,       0,       0,       0, 0, 0, 0, 0, 1, 1, 0, 1, 1, 0, 1, 0, 1, 0, 1
    61,     62, 1, 0.002643072, 0.001871372,        0,       0,       0,       0, 0, 0, 0, 0, 1, 1, 0, 1, 1, 0, 1, 0, 1, 0, 1
    60,     63, 1, 0.002270083, 0.001607708,        0,       0,       0,       0, 0, 0, 0, 0, 1, 1, 0, 1, 1, 0, 1, 0, 1, 0, 1
    63,     64, 1, 0.00673308, 0.004765246,        0,       0,       0,       0, 0, 0, 0, 0, 1, 1, 0, 1, 1, 0, 1, 0, 1, 0, 1
    64,     65, 1, 0.00433438, 0.003067506,        0,       0,       0,       0, 0, 0, 0, 0, 1, 1, 0, 1, 1, 0, 1, 0, 1, 0, 1
    65,     66, 1, 0.001942111, 0.001376198,        0,       0,       0,       0, 0, 0, 0, 0, 1, 1, 0, 1, 1, 0, 1, 0, 1, 0, 1
    66,     67, 1, 0.002932459, 0.002077158,        0,       0,       0,       0, 0, 0, 0, 0, 1, 1, 0, 1, 1, 0, 1, 0, 1, 0, 1
    67,     68, 1, 0.001401921, 0.000990348,        0,       0,       0,       0, 0, 0, 0, 0, 1, 1, 0, 1, 1, 0, 1, 0, 1, 0, 1
    70,     72, 1, 0.004501582, 0.003183261,        0,       0,       0,       0, 0, 0, 0, 0, 1, 1, 0, 1, 1, 0, 1, 0, 1, 0, 1
    42,     73, 1, 0.001485522, 0.001054656,        0,       0,       0,       0, 0, 0, 0, 0, 1, 1, 0, 1, 1, 0, 1, 0, 1, 0, 1
    73,     74, 1, 0.0001929249, 0.0004115732,        0,       0,       0,       0, 0, 0, 0, 0, 1, 1, 0, 1, 1, 0, 1, 0, 1, 0, 1
    43,     75, 1, 0.002437285, 0.001723463,        0,       0,       0,       0, 0, 0, 0, 0, 1, 1, 0, 1, 1, 0, 1, 0, 1, 0, 1
    44,     76, 1, 0.003549819, 0.002514455,        0,       0,       0,       0, 0, 0, 0, 0, 1, 1, 0, 1, 1, 0, 1, 0, 1, 0, 1
    46,     77, 1, 0.003318309, 0.002803842,        0,       0,       0,       0, 0, 0, 0, 0, 1, 1, 0, 1, 1, 0, 1, 0, 1, 0, 1
    76,     78, 1, 0.001073949, 0.0007073914,        0,       0,       0,       0, 0, 0, 0, 0, 1, 1, 0, 1, 1, 0, 1, 0, 1, 0, 1
    78,     79, 1, 0.002668795, 0.0006495139,        0,       0,       0,       0, 0, 0, 0, 0, 1, 1, 0, 1, 1, 0, 1, 0, 1, 0, 1
    79,     80, 1, 0.006450123, 0.001569123,        0,       0,       0,       0, 0, 0, 0, 0, 1, 1, 0, 1, 1, 0, 1, 0, 1, 0, 1
    79,     81, 1, 0.009729847, 0.002379407,        0,       0,       0,       0, 0, 0, 0, 0, 1, 1, 0, 1, 1, 0, 1, 0, 1, 0, 1
    81,     82, 1, 0.0002122174, 5.144665e-05,        0,       0,       0,       0, 0, 0, 0, 0, 1, 1, 0, 1, 1, 0, 1, 0, 1, 0, 1
    47,     83, 1, 0.0005466206, 0.0003987115,        0,       0,       0,       0, 0, 0, 0, 0, 1, 1, 0, 1, 1, 0, 1, 0, 1, 0, 1
    49,     84, 1, 0.00332474, 0.002887443,        0,       0,       0,       0, 0, 0, 0, 0, 1, 1, 0, 1, 1, 0, 1, 0, 1, 0, 1
    50,     85, 1, 0.0009453321, 0.0002315099,        0,       0,       0,       0, 0, 0, 0, 0, 1, 1, 0, 1, 1, 0, 1, 0, 1, 0, 1
    85,     86, 1, 0.0002379407, 0.0001028933,        0,       0,       0,       0, 0, 0, 0, 0, 1, 1, 0, 1, 1, 0, 1, 0, 1, 0, 1
    86,     87, 1,        0, 6.430831e-07,        0,       0,       0,       0, 0, 0, 0, 0, 1, 1, 0, 1, 1, 0, 1, 0, 1, 0, 1
     7,     88, 1, 0.001118965, 0.001485522,        0,       0,       0,       0, 0, 0, 0, 0, 1, 1, 0, 1, 1, 0, 1, 0, 1, 0, 1
    88,     89, 1, 0.00301606, 0.004019269,        0,       0,       0,       0, 0, 0, 0, 0, 1, 1, 0, 1, 1, 0, 1, 0, 1, 0, 1
    89,     90, 1, 0.001922818, 0.002559471,        0,       0,       0,       0, 0, 0, 0, 0, 1, 1, 0, 1, 1, 0, 1, 0, 1, 0, 1
    90,     91, 1, 0.001363336, 0.001819925,        0,       0,       0,       0, 0, 0, 0, 0, 1, 1, 0, 1, 1, 0, 1, 0, 1, 0, 1
    91,     92, 1, 0.002025712, 0.002700949,        0,       0,       0,       0, 0, 0, 0, 0, 1, 1, 0, 1, 1, 0, 1, 0, 1, 0, 1
    92,     93, 1, 0.001800633, 0.0023987,        0,       0,       0,       0, 0, 0, 0, 0, 1, 1, 0, 1, 1, 0, 1, 0, 1, 0, 1
    93,     94, 1, 0.001324751, 0.001762048,        0,       0,       0,       0, 0, 0, 0, 0, 1, 1, 0, 1, 1, 0, 1, 0, 1, 0, 1
    94,     95, 1, 0.001324751, 0.001762048,        0,       0,       0,       0, 0, 0, 0, 0, 1, 1, 0, 1, 1, 0, 1, 0, 1, 0, 1
    89,     96, 1, 0.004417981, 0.003125384,        0,       0,       0,       0, 0, 0, 0, 0, 1, 1, 0, 1, 1, 0, 1, 0, 1, 0, 1
    96,     97, 1, 0.006237906, 0.00441155,        0,       0,       0,       0, 0, 0, 0, 0, 1, 1, 0, 1, 1, 0, 1, 0, 1, 0, 1
    97,     98, 1, 0.00580061, 0.001260443,        0,       0,       0,       0, 0, 0, 0, 0, 1, 1, 0, 1, 1, 0, 1, 0, 1, 0, 1
    97,     99, 1, 0.0002122174, 5.144665e-05,        0,       0,       0,       0, 0, 0, 0, 0, 1, 1, 0, 1, 1, 0, 1, 0, 1, 0, 1
   131,    132, 1, 0.002231498, 0.001575554,        0,       0,       0,       0, 0, 0, 0, 0, 1, 1, 0, 1, 1, 0, 1, 0, 1, 0, 1
   131,    133, 1, 0.005916364, 0.004302226,        0,       0,       0,       0, 0, 0, 0, 0, 1, 1, 0, 1, 1, 0, 1, 0, 1, 0, 1
   121,    134, 1, 0.005408329, 0.003935669,        0,       0,       0,       0, 0, 0, 0, 0, 1, 1, 0, 1, 1, 0, 1, 0, 1, 0, 1
    16,    135, 1, 0.003389048, 0.0023987,        0,       0,       0,       0, 0, 0, 0, 0, 1, 1, 0, 1, 1, 0, 1, 0, 1, 0, 1
    16,    136, 1, 0.001942111, 0.001376198,        0,       0,       0,       0, 0, 0, 0, 0, 1, 1, 0, 1, 1, 0, 1, 0, 1, 0, 1
    18,    137, 1, 0.003755605, 0.002662364,        0,       0,       0,       0, 0, 0, 0, 0, 1, 1, 0, 1, 1, 0, 1, 0, 1, 0, 1
    23,    138, 1, 0.004945309, 0.003594834,        0,       0,       0,       0, 0, 0, 0, 0, 1, 1, 0, 1, 1, 0, 1, 0, 1, 0, 1
    29,     30, 1, 0.002199344, 0.001594846,        0,       0,       0,       0, 0, 0, 0, 0, 1, 1, 0, 1, 1, 0, 1, 0, 1, 0, 1
    30,     31, 1, 0.0008231464, 0.0005852056,        0,       0,       0,       0, 0, 0, 0, 0, 1, 1, 0, 1, 1, 0, 1, 0, 1, 0, 1
    31,     32, 1, 0.002231498, 0.001575554,        0,       0,       0,       0, 0, 0, 0, 0, 1, 1, 0, 1, 1, 0, 1, 0, 1, 0, 1
     2,     33, 1, 0.002848858, 0.002019281,        0,       0,       0,       0, 0, 0, 0, 0, 1, 1, 0, 1, 1, 0, 1, 0, 1, 0, 1
    33,     34, 1, 0.0001286166, 5.787748e-05,        0,       0,       0,       0, 0, 0, 0, 0, 1, 1, 0, 1, 1, 0, 1, 0, 1, 0, 1
     5,     35, 1, 0.01462371, 0.00356268,        0,       0,       0,       0, 0, 0, 0, 0, 1, 1, 0, 1, 1, 0, 1, 0, 1, 0, 1
     5,     36, 1, 0.008135001, 0.01006425,        0,       0,       0,       0, 0, 0, 0, 0, 1, 1, 0, 1, 1, 0, 1, 0, 1, 0, 1
     6,     37, 1, 0.0003536957, 0.0004694507,        0,       0,       0,       0, 0, 0, 0, 0, 1, 1, 0, 1, 1, 0, 1, 0, 1, 0, 1
    37,     38, 1, 0.01309317, 0.009260397,        0,       0,       0,       0, 0, 0, 0, 0, 1, 1, 0, 1, 1, 0, 1, 0, 1, 0, 1
    38,     39, 1, 0.006032119, 0.004263641,        0,       0,       0,       0, 0, 0, 0, 0, 1, 1, 0, 1, 1, 0, 1, 0, 1, 0, 1
    39,     40, 1, 0.002231498, 0.001575554,        0,       0,       0,       0, 0, 0, 0, 0, 1, 1, 0, 1, 1, 0, 1, 0, 1, 0, 1
    40,     41, 1, 0.005903503, 0.00418004,        0,       0,       0,       0, 0, 0, 0, 0, 1, 1, 0, 1, 1, 0, 1, 0, 1, 0, 1
    41,     42, 1, 0.01490667, 0.01054656,        0,       0,       0,       0, 0, 0, 0, 0, 1, 1, 0, 1, 1, 0, 1, 0, 1, 0, 1
    42,     43, 1, 0.007762013, 0.00549193,        0,       0,       0,       0, 0, 0, 0, 0, 1, 1, 0, 1, 1, 0, 1, 0, 1, 0, 1
    43,     44, 1, 0.002848858, 0.002019281,        0,       0,       0,       0, 0, 0, 0, 0, 1, 1, 0, 1, 1, 0, 1, 0, 1, 0, 1
    44,     45, 1, 0.002604487, 0.001852079,        0,       0,       0,       0, 0, 0, 0, 0, 1, 1, 0, 1, 1, 0, 1, 0, 1, 0, 1
    45,     46, 1, 0.001028933, 0.0008167155,        0,       0,       0,       0, 0, 0, 0, 0, 1, 1, 0, 1, 1, 0, 1, 0, 1, 0, 1
    46,     47, 1, 0.004090008, 0.002893874,        0,       0,       0,       0, 0, 0, 0, 0, 1, 1, 0, 1, 1, 0, 1, 0, 1, 0, 1
    47,     48, 1, 0.002681657, 0.001897095,        0,       0,       0,       0, 0, 0, 0, 0, 1, 1, 0, 1, 1, 0, 1, 0, 1, 0, 1
    48,     49, 1, 0.004707368, 0.003279724,        0,       0,       0,       0, 0, 0, 0, 0, 1, 1, 0, 1, 1, 0, 1, 0, 1, 0, 1
    49,     50, 1, 0.005324728, 0.003575542,        0,       0,       0,       0, 0, 0, 0, 0, 1, 1, 0, 1, 1, 0, 1, 0, 1, 0, 1
    50,     51, 1, 0.002559471, 0.001813494,        0,       0,       0,       0, 0, 0, 0, 0, 1, 1, 0, 1, 1, 0, 1, 0, 1, 0, 1
    51,     52, 1, 0.001446937, 0.001022502,        0,       0,       0,       0, 0, 0, 0, 0, 1, 1, 0, 1, 1, 0, 1, 0, 1, 0, 1
    38,     53, 1, 0.005408329, 0.003826344,        0,       0,       0,       0, 0, 0, 0, 0, 1, 1, 0, 1, 1, 0, 1, 0, 1, 0, 1
    42,     54, 1, 0.001035364, 0.0007331147,        0,       0,       0,       0, 0, 0, 0, 0, 1, 1, 0, 1, 1, 0, 1, 0, 1, 0, 1
    54,     55, 1, 0.003389048, 0.0023987,        0,       0,       0,       0, 0, 0, 0, 0, 1, 1, 0, 1, 1, 0, 1, 0, 1, 0, 1
    55,     56, 1, 0.005742732, 0.004064285,        0,       0,       0,       0, 0, 0, 0, 0, 1, 1, 0, 1, 1, 0, 1, 0, 1, 0, 1
    56,     57, 1, 0.00557553, 0.003942099,        0,       0,       0,       0, 0, 0, 0, 0, 1, 1, 0, 1, 1, 0, 1, 0, 1, 0, 1
    57,     58, 1, 0.00433438, 0.003067506,        0,       0,       0,       0, 0, 0, 0, 0, 1, 1, 0, 1, 1, 0, 1, 0, 1, 0, 1
    58,     59, 1, 0.00301606, 0.002135036,        0,       0,       0,       0, 0, 0, 0, 0, 1, 1, 0, 1, 1, 0, 1, 0, 1, 0, 1
    55,     60, 1, 0.002147898, 0.001517676,        0,       0,       0,       0, 0, 0, 0, 0, 1, 1, 0, 1, 1, 0, 1, 0, 1, 0, 1
    60,     61, 1, 0.002102882, 0.001491953,        0,       0,       0,       0, 0, 0, 0, 0, 1, 1, 0, 1, 1, 0, 1, 0, 1, 0, 1
    63,     69, 1, 0.002353684, 0.001665585,        0,       0,       0,       0, 0, 0, 0, 0, 1, 1, 0, 1, 1, 0, 1, 0, 1, 0, 1
    55,     70, 1, 0.001485522, 0.001054656,        0,       0,       0,       0, 0, 0, 0, 0, 1, 1, 0, 1, 1, 0, 1, 0, 1, 0, 1
    70,     71, 1, 0.0007716997, 0.0001864941,        0,       0,       0,       0, 0, 0, 0, 0, 1, 1, 0, 1, 1, 0, 1, 0, 1, 0, 1
    99,    100, 1, 0.0002122174, 5.144665e-05,        0,       0,       0,       0, 0, 0, 0, 0, 1, 1, 0, 1, 1, 0, 1, 0, 1, 0, 1
    91,    101, 1, 0.001485522, 0.001054656,        0,       0,       0,       0, 0, 0, 0, 0, 1, 1, 0, 1, 1, 0, 1, 0, 1, 0, 1
   101,    102, 1, 0.00371702, 0.00263021,        0,       0,       0,       0, 0, 0, 0, 0, 1, 1, 0, 1, 1, 0, 1, 0, 1, 0, 1
   102,    103, 1, 0.005717009, 0.00139549,        0,       0,       0,       0, 0, 0, 0, 0, 1, 1, 0, 1, 1, 0, 1, 0, 1, 0, 1
   103,    104, 1, 0.004044993, 0.0009839171,        0,       0,       0,       0, 0, 0, 0, 0, 1, 1, 0, 1, 1, 0, 1, 0, 1, 0, 1
   104,    105, 1, 0.007524072, 0.001832787,        0,       0,       0,       0, 0, 0, 0, 0, 1, 1, 0, 1, 1, 0, 1, 0, 1, 0, 1
   104,    106, 1, 0.0007331147, 0.0001672016,        0,       0,       0,       0, 0, 0, 0, 0, 1, 1, 0, 1, 1, 0, 1, 0, 1, 0, 1
    92,    107, 1, 0.005459775, 0.001331182,        0,       0,       0,       0, 0, 0, 0, 0, 1, 1, 0, 1, 1, 0, 1, 0, 1, 0, 1
    94,    108, 1, 0.003935669, 0.001672016,        0,       0,       0,       0, 0, 0, 0, 0, 1, 1, 0, 1, 1, 0, 1, 0, 1, 0, 1
   108,    109, 1, 0.002906736, 0.00123472,        0,       0,       0,       0, 0, 0, 0, 0, 1, 1, 0, 1, 1, 0, 1, 0, 1, 0, 1
    94,    110, 1, 0.0002122174, 5.144665e-05,        0,       0,       0,       0, 0, 0, 0, 0, 1, 1, 0, 1, 1, 0, 1, 0, 1, 0, 1
     7,    111, 1, 0.004623767, 0.003273293,        0,       0,       0,       0, 0, 0, 0, 0, 1, 1, 0, 1, 1, 0, 1, 0, 1, 0, 1
    10,    112, 1, 0.006880989, 0.001678447,        0,       0,       0,       0, 0, 0, 0, 0, 1, 1, 0, 1, 1, 0, 1, 0, 1, 0, 1
    11,    113, 1, 0.002231498, 0.001575554,        0,       0,       0,       0, 0, 0, 0, 0, 1, 1, 0, 1, 1, 0, 1, 0, 1, 0, 1
    13,    114, 1, 0.004006408, 0.002835996,        0,       0,       0,       0, 0, 0, 0, 0, 1, 1, 0, 1, 1, 0, 1, 0, 1, 0, 1
   114,    115, 1, 0.004295795, 0.003041783,        0,       0,       0,       0, 0, 0, 0, 0, 1, 1, 0, 1, 1, 0, 1, 0, 1, 0, 1
   115,    116, 1, 0.0002572332, 6.430831e-05,        0,       0,       0,       0, 0, 0, 0, 0, 1, 1, 0, 1, 1, 0, 1, 0, 1, 0, 1
    14,    117, 1, 0.003254, 0.002353684,        0,       0,       0,       0, 0, 0, 0, 0, 1, 1, 0, 1, 1, 0, 1, 0, 1, 0, 1
    15,    118, 1, 0.001035364, 0.0007331147,        0,       0,       0,       0, 0, 0, 0, 0, 1, 1, 0, 1, 1, 0, 1, 0, 1, 0, 1
   118,    119, 1, 0.002971044, 0.002102882,        0,       0,       0,       0, 0, 0, 0, 0, 1, 1, 0, 1, 1, 0, 1, 0, 1, 0, 1
   119,    120, 1, 0.002726672, 0.001929249,        0,       0,       0,       0, 0, 0, 0, 0, 1, 1, 0, 1, 1, 0, 1, 0, 1, 0, 1
   120,    121, 1, 0.003260431, 0.002308668,        0,       0,       0,       0, 0, 0, 0, 0, 1, 1, 0, 1, 1, 0, 1, 0, 1, 0, 1
   121,    122, 1, 0.004707368, 0.00333117,        0,       0,       0,       0, 0, 0, 0, 0, 1, 1, 0, 1, 1, 0, 1, 0, 1, 0, 1
   122,    123, 1, 0.003755605, 0.002662364,        0,       0,       0,       0, 0, 0, 0, 0, 1, 1, 0, 1, 1, 0, 1, 0, 1, 0, 1
   123,    124, 1, 0.003922807, 0.002778119,        0,       0,       0,       0, 0, 0, 0, 0, 1, 1, 0, 1, 1, 0, 1, 0, 1, 0, 1
   124,    125, 1, 0.005035341, 0.00356268,        0,       0,       0,       0, 0, 0, 0, 0, 1, 1, 0, 1, 1, 0, 1, 0, 1, 0, 1
   125,    126, 1, 0.005363313, 0.003903514,        0,       0,       0,       0, 0, 0, 0, 0, 1, 1, 0, 1, 1, 0, 1, 0, 1, 0, 1
   126,    127, 1, 0.002231498, 0.001575554,        0,       0,       0,       0, 0, 0, 0, 0, 1, 1, 0, 1, 1, 0, 1, 0, 1, 0, 1
   127,    128, 1, 0.003665574, 0.002700949,        0,       0,       0,       0, 0, 0, 0, 0, 1, 1, 0, 1, 1, 0, 1, 0, 1, 0, 1
   128,    129, 1, 0.003762036, 0.002733103,        0,       0,       0,       0, 0, 0, 0, 0, 1, 1, 0, 1, 1, 0, 1, 0, 1, 0, 1
   129,    130, 1, 0.0006623756, 0.0004694507,        0,       0,       0,       0, 0, 0, 0, 0, 1, 1, 0, 1, 1, 0, 1, 0, 1, 0, 1
   119,    131, 1, 0.002282945, 0.001627,        0,       0,       0,       0, 0, 0, 0, 0, 1, 1, 0, 1, 1, 0, 1, 0, 1, 0, 1
    25,    139, 1, 0.006109289, 0.004327949,        0,       0,       0,       0, 0, 0, 0, 0, 1, 1, 0, 1, 1, 0, 1, 0, 1, 0, 1
    30,    140, 1, 0.003337601, 0.002424423,        0,       0,       0,       0, 0, 0, 0, 0, 1, 1, 0, 1, 1, 0, 1, 0, 1, 0, 1
    31,    141, 1, 0.003755605, 0.002662364,        0,       0,       0,       0, 0, 0, 0, 0, 1, 1, 0, 1, 1, 0, 1, 0, 1, 0, 1
0 / END OF BRANCH DATA, BEGIN TRANSFORMER DATA
0 / END OF TRANSFORMER DATA, BEGIN AREA DATA
0 / END OF AREA DATA, BEGIN TWO-TERMINAL DC DATA
0 / END OF TWO-TERMINAL DC DATA, BEGIN VOLTAGE SOURCE CONVERTER DATA
0 / END OF VOLTAGE SOURCE CONVERTER DATA, BEGIN IMPEDANCE CORRECTION DATA
0 / END OF IMPEDANCE CORRECTION DATA, BEGIN MULTI-TERMINAL DC DATA
0 / END OF MULTI-TERMINAL DC DATA, BEGIN MULTI-SECTION LINE DATA
0 / END OF MULTI-SECTION LINE DATA, BEGIN ZONE DATA
0 / END OF ZONE DATA, BEGIN INTER-AREA TRANSFER DATA
0 / END OF INTER-AREA TRANSFER DATA, BEGIN OWNER DATA
0 / END OF OWNER DATA, BEGIN FACTS CONTROL DEVICE DATA
0 / END OF FACTS CONTROL DEVICE DATA, BEGIN SWITCHED SHUNT DATA
0 / END OF SWITCHED SHUNT DATA, BEGIN GNE DEVICE DATA
0 / END OF GNE DEVICE DATA, BEGIN INDUCTION MACHINE DATA
0 / END OF INDUCTION MACHINE DATA
Q
